SOL 145 
CEND
$POST TOFILE 12 DISPLACE
ECHO=NONE
SPC=2
AEROF=NONE
APRESSURE=NONE
DISPLACEMENT=ALL
FMETHOD=1
METHOD=1
CMETHOD=2
SVECTOR=ALL
BEGIN BULK
PARAM,POST,0
PARAM,LMODES,50
MKAERO2,2.0,.01,2.0,.03,2.0,0.06,2.0,.09
MKAERO2,2.0,0.12,2.0,0.15
AERO,,,5.0,0.04
$AEROS,,,10.0,50.0,50.0
FLUTTER,1,PK,1,2,3,S,20,1.0e-6
$ density ratio
FLFACT,1,1.0
$ Mach numbers for analysis
FLFACT,2,2.0
$ velocities
FLFACT,3,-400.0,-420.0,-440.0,-460.0,-480.0,-500.0,-520.0,
,-540.0,-560.0,-580.0,-600.0,-620.0,-640.0,-660.0,680.0
EIGRL,1,0.0,,50
EIGC,2,CLAN,,,,,20
$
MAT1,1,27.0e+9,,0.33,2000.0
PSHELL,1,1,0.0075,1
PAERO5,1,1,4,
,0.0
AEFACT,4,2.0,0.0997,2.5,0.0997,3.0,0.0997,3.5
,0.0997
AEFACT,5,0.0,0.0,0.0,0.0,0.0,0.0
GRID,1,,0.000000,0.000000,0.0
GRID,2,,0.06122449,0.000000,0.0
GRID,3,,0.1224490,0.000000,0.0
GRID,4,,0.1836735,0.000000,0.0
GRID,5,,0.2448980,0.000000,0.0
GRID,6,,0.3061224,0.000000,0.0
GRID,7,,0.3673469,0.000000,0.0
GRID,8,,0.4285714,0.000000,0.0
GRID,9,,0.4897959,0.000000,0.0
GRID,10,,0.5510204,0.000000,0.0
GRID,11,,0.6122449,0.000000,0.0
GRID,12,,0.6734694,0.000000,0.0
GRID,13,,0.7346939,0.000000,0.0
GRID,14,,0.7959184,0.000000,0.0
GRID,15,,0.8571429,0.000000,0.0
GRID,16,,0.9183673,0.000000,0.0
GRID,17,,0.9795918,0.000000,0.0
GRID,18,,1.040816,0.000000,0.0
GRID,19,,1.102041,0.000000,0.0
GRID,20,,1.163265,0.000000,0.0
$ ... 2480 like lines cut
SET1,2000001,1,2,51,52
CTRIA3,1,1,1,2,52
CTRIA3,2,1,1,52,51
SET1,2000003,2,3,52,53
CTRIA3,3,1,2,3,53
CTRIA3,4,1,2,53,52
SET1,2000005,3,4,53,54
CTRIA3,5,1,3,4,54
CTRIA3,6,1,3,54,53
SET1,2000007,4,5,54,55
CTRIA3,7,1,4,5,55
CTRIA3,8,1,4,55,54
SET1,2000009,5,6,55,56
CTRIA3,9,1,5,6,56
CTRIA3,10,1,5,56,55
SET1,2000011,6,7,56,57
CTRIA3,11,1,6,7,57
CTRIA3,12,1,6,57,56
SET1,2000013,7,8,57,58
CTRIA3,13,1,7,8,58
CTRIA3,14,1,7,58,57
SET1,2000015,8,9,58,59
CTRIA3,15,1,8,9,59
CTRIA3,16,1,8,59,58
SET1,2000017,9,10,59,60
CTRIA3,17,1,9,10,60
CTRIA3,18,1,9,60,59
SET1,2000019,10,11,60,61
CTRIA3,19,1,10,11,61
CTRIA3,20,1,10,61,60
SET1,2000021,11,12,61,62
CTRIA3,21,1,11,12,62
CTRIA3,22,1,11,62,61
SET1,2000023,12,13,62,63
CTRIA3,23,1,12,13,63
CTRIA3,24,1,12,63,62
SET1,2000025,13,14,63,64
CTRIA3,25,1,13,14,64
CTRIA3,26,1,13,64,63
SET1,2000027,14,15,64,65
CTRIA3,27,1,14,15,65
CTRIA3,28,1,14,65,64
SET1,2000029,15,16,65,66
CTRIA3,29,1,15,16,66
CTRIA3,30,1,15,66,65
SET1,2000031,16,17,66,67
CTRIA3,31,1,16,17,67
CTRIA3,32,1,16,67,66
SET1,2000033,17,18,67,68
CTRIA3,33,1,17,18,68
CTRIA3,34,1,17,68,67
SET1,2000035,18,19,68,69
CTRIA3,35,1,18,19,69
CTRIA3,36,1,18,69,68
SET1,2000037,19,20,69,70
CTRIA3,37,1,19,20,70
CTRIA3,38,1,19,70,69
SET1,2000039,20,21,70,71
CTRIA3,39,1,20,21,71
CTRIA3,40,1,20,71,70
$ ... 7143 like lines cut
CAERO5,100001,1,,1,,0,5,,
,0.000000,0.000000,0.0,0.06122449,0.000000,0.06122449,0.0,0.06122449
SPLINE1,1000001,100001,100001,100001,2000001,0.0,IPS,BOTH
CAERO5,100003,1,,1,,0,5,,
,0.06122449,0.000000,0.0,0.06122449,0.06122449,0.06122449,0.0,0.06122449
SPLINE1,1000003,100003,100003,100003,2000003,0.0,IPS,BOTH
CAERO5,100005,1,,1,,0,5,,
,0.1224490,0.000000,0.0,0.06122449,0.1224490,0.06122449,0.0,0.06122449
SPLINE1,1000005,100005,100005,100005,2000005,0.0,IPS,BOTH
CAERO5,100007,1,,1,,0,5,,
,0.1836735,0.000000,0.0,0.06122449,0.1836735,0.06122449,0.0,0.06122449
SPLINE1,1000007,100007,100007,100007,2000007,0.0,IPS,BOTH
CAERO5,100009,1,,1,,0,5,,
,0.2448980,0.000000,0.0,0.06122449,0.2448980,0.06122449,0.0,0.06122449
SPLINE1,1000009,100009,100009,100009,2000009,0.0,IPS,BOTH
CAERO5,100011,1,,1,,0,5,,
,0.3061224,0.000000,0.0,0.06122449,0.3061224,0.06122449,0.0,0.06122449
SPLINE1,1000011,100011,100011,100011,2000011,0.0,IPS,BOTH
CAERO5,100013,1,,1,,0,5,,
,0.3673469,0.000000,0.0,0.06122449,0.3673469,0.06122449,0.0,0.06122449
SPLINE1,1000013,100013,100013,100013,2000013,0.0,IPS,BOTH
CAERO5,100015,1,,1,,0,5,,
,0.4285714,0.000000,0.0,0.06122449,0.4285714,0.06122449,0.0,0.06122449
SPLINE1,1000015,100015,100015,100015,2000015,0.0,IPS,BOTH
CAERO5,100017,1,,1,,0,5,,
,0.4897959,0.000000,0.0,0.06122449,0.4897959,0.06122449,0.0,0.06122449
SPLINE1,1000017,100017,100017,100017,2000017,0.0,IPS,BOTH
CAERO5,100019,1,,1,,0,5,,
,0.5510204,0.000000,0.0,0.06122449,0.5510204,0.06122449,0.0,0.06122449
SPLINE1,1000019,100019,100019,100019,2000019,0.0,IPS,BOTH
CAERO5,100021,1,,1,,0,5,,
,0.6122449,0.000000,0.0,0.06122449,0.6122449,0.06122449,0.0,0.06122449
SPLINE1,1000021,100021,100021,100021,2000021,0.0,IPS,BOTH
CAERO5,100023,1,,1,,0,5,,
,0.6734694,0.000000,0.0,0.06122449,0.6734694,0.06122449,0.0,0.06122449
SPLINE1,1000023,100023,100023,100023,2000023,0.0,IPS,BOTH
CAERO5,100025,1,,1,,0,5,,
,0.7346939,0.000000,0.0,0.06122449,0.7346939,0.06122449,0.0,0.06122449
SPLINE1,1000025,100025,100025,100025,2000025,0.0,IPS,BOTH
CAERO5,100027,1,,1,,0,5,,
,0.7959184,0.000000,0.0,0.06122449,0.7959184,0.06122449,0.0,0.06122449
SPLINE1,1000027,100027,100027,100027,2000027,0.0,IPS,BOTH
CAERO5,100029,1,,1,,0,5,,
,0.8571429,0.000000,0.0,0.06122449,0.8571429,0.06122449,0.0,0.06122449
SPLINE1,1000029,100029,100029,100029,2000029,0.0,IPS,BOTH
CAERO5,100031,1,,1,,0,5,,
,0.9183673,0.000000,0.0,0.06122449,0.9183673,0.06122449,0.0,0.06122449
SPLINE1,1000031,100031,100031,100031,2000031,0.0,IPS,BOTH
CAERO5,100033,1,,1,,0,5,,
,0.9795918,0.000000,0.0,0.06122449,0.9795918,0.06122449,0.0,0.06122449
SPLINE1,1000033,100033,100033,100033,2000033,0.0,IPS,BOTH
CAERO5,100035,1,,1,,0,5,,
,1.040816,0.000000,0.0,0.06122449,1.040816,0.06122449,0.0,0.06122449
SPLINE1,1000035,100035,100035,100035,2000035,0.0,IPS,BOTH
CAERO5,100037,1,,1,,0,5,,
,1.102041,0.000000,0.0,0.06122449,1.102041,0.06122449,0.0,0.06122449
SPLINE1,1000037,100037,100037,100037,2000037,0.0,IPS,BOTH
CAERO5,100039,1,,1,,0,5,,
,1.163265,0.000000,0.0,0.06122449,1.163265,0.06122449,0.0,0.06122449
SPLINE1,1000039,100039,100039,100039,2000039,0.0,IPS,BOTH
$ ... 7143 like lines cut
SPC,2,1,6,0.0
SPC,2,2,6,0.0
SPC,2,3,6,0.0
SPC,2,4,6,0.0
SPC,2,5,6,0.0
SPC,2,6,6,0.0
SPC,2,7,6,0.0
SPC,2,8,6,0.0
SPC,2,9,6,0.0
SPC,2,10,6,0.0
SPC,2,11,6,0.0
SPC,2,12,6,0.0
SPC,2,13,6,0.0
SPC,2,14,6,0.0
SPC,2,15,6,0.0
SPC,2,16,6,0.0
SPC,2,17,6,0.0
SPC,2,18,6,0.0
SPC,2,19,6,0.0
SPC,2,20,6,0.0
$ ... 2678 like lines cut
ENDDATA
